*Heading
** Job name: desgaste Model name: Bloco simples
** Generated by: Abaqus/CAE 6.14-2
*Preprint, echo=NO, model=NO, history=NO, contact=NO
** ----------------------------------------------------------------
** 
** PART INSTANCE: Part-1-1
** 
*Node
      1,        28.75,          10.,          10.
      2,        28.75,           9.,          10.
      3,        28.75,           8.,          10.
      4,        28.75,           7.,          10.
      5,        28.75,           6.,          10.
      6,        28.75,           5.,          10.
      7,        28.75,           4.,          10.
      8,        28.75,           3.,          10.
      9,        28.75,           2.,          10.
     10,        28.75,           1.,          10.
     11,        28.75,           0.,          10.
     12,        28.75,          10.,           9.
     13,        28.75,           9.,           9.
     14,        28.75,           8.,           9.
     15,        28.75,           7.,           9.
     16,        28.75,           6.,           9.
     17,        28.75,           5.,           9.
     18,        28.75,           4.,           9.
     19,        28.75,           3.,           9.
     20,        28.75,           2.,           9.
** ... 6151 like lines cut
*Element, type=C3D8R
   1,  122,  123,  134,  133,    1,    2,   13,   12
   2,  123,  124,  135,  134,    2,    3,   14,   13
   3,  124,  125,  136,  135,    3,    4,   15,   14
   4,  125,  126,  137,  136,    4,    5,   16,   15
   5,  126,  127,  138,  137,    5,    6,   17,   16
   6,  127,  128,  139,  138,    6,    7,   18,   17
   7,  128,  129,  140,  139,    7,    8,   19,   18
   8,  129,  130,  141,  140,    8,    9,   20,   19
   9,  130,  131,  142,  141,    9,   10,   21,   20
  10,  131,  132,  143,  142,   10,   11,   22,   21
  11,  133,  134,  145,  144,   12,   13,   24,   23
  12,  134,  135,  146,  145,   13,   14,   25,   24
  13,  135,  136,  147,  146,   14,   15,   26,   25
  14,  136,  137,  148,  147,   15,   16,   27,   26
  15,  137,  138,  149,  148,   16,   17,   28,   27
  16,  138,  139,  150,  149,   17,   18,   29,   28
  17,  139,  140,  151,  150,   18,   19,   30,   29
  18,  140,  141,  152,  151,   19,   20,   31,   30
  19,  141,  142,  153,  152,   20,   21,   32,   31
  20,  142,  143,  154,  153,   21,   22,   33,   32
** ... 4980 like lines cut
*Nset, nset=Part-1-1_Set-2, generate
    1,  6171,     1
*Elset, elset=Part-1-1_Set-2, generate
    1,  5000,     1
** Section: bloco-volume
*Solid Section, elset=Part-1-1_Set-2, material=user
,
** ----------------------------------------------------------------
** 
** PART INSTANCE: Part-2-1
** 
*System
        -20.,       10.01,          5.,        -19.,       10.01,          5.
*Node
   6172,   2.41481447,   1.85295236,           0.
   6173,   2.16506362,         1.25,           0.
   6174,   1.76776695,  0.732233047,           0.
   6175,         1.25,    0.3349365,           0.
   6176,  0.647047639, 0.0851854309,           0.
   6177,          2.5,          2.5,           0.
   6178,           0.,           0.,           0.
   6179,   2.39873242,          2.5,  0.704331398
   6180,   2.10313392,          2.5,   1.35160208
   6181,   1.63715184,          2.5,    1.8893739
   6182,    1.0385375,          2.5,   2.27408004
   6183,  0.355787098,          2.5,   2.47455359
   6184, -0.355787098,          2.5,   2.47455359
   6185,   -1.0385375,          2.5,   2.27408004
   6186,  -1.63715184,          2.5,    1.8893739
   6187,  -2.10313392,          2.5,   1.35160208
   6188,  -2.39873242,          2.5,  0.704331398
   6189,         -2.5,          2.5,           0.
   6190,  -2.39873242,          2.5, -0.704331398
   6191,  -2.10313392,          2.5,  -1.35160208
** ... 93 like lines cut
*Element, type=R3D3
5001, 6281, 6226, 6231
5002, 6271, 6259, 6263
5003, 6246, 6253, 6241
5004, 6254, 6255, 6248
*Element, type=R3D4
5005, 6217, 6210, 6213, 6245
5006, 6215, 6178, 6244, 6282
5007, 6244, 6243, 6249, 6256
5008, 6219, 6242, 6223, 6278
5009, 6226, 6241, 6220, 6225
5010, 6246, 6259, 6260, 6253
5011, 6186, 6187, 6268, 6271
5012, 6273, 6272, 6188, 6189
5013, 6272, 6273, 6265, 6264
5014, 6224, 6216, 6213, 6218
5015, 6215, 6277, 6176, 6178
5016, 6228, 6227, 6219, 6278
5017, 6227, 6230, 6225, 6220
5018, 6225, 6232, 6231, 6226
5019, 6181, 6182, 6236, 6235
5020, 6220, 6222, 6219, 6227
5021, 6178, 6223, 6243, 6244
5022, 6245, 6213, 6216, 6258
5023, 6218, 6212, 6277, 6215
5024, 6283, 6211, 6217, 6245
** ... 79 like lines cut
*Node
   6285,  -4.59242523e-16,           0.,           0.
*Nset, nset=Part-2-1-RefPt_
6285, 
*Nset, nset=Part-2-1_Set-3
6285,
*Elset, elset=Part-2-1, generate
5001, 5103,    1
*Element, type=MASS, elset=Part-2-1_Set-3_Inertia-1_MASS_
5104, 6285
*Mass, elset=Part-2-1_Set-3_Inertia-1_MASS_
7.85e-10, 
*Element, type=ROTARYI, elset=Part-2-1_Set-3_Inertia-1_ROTI_
5105, 6285
*Rotary Inertia, elset=Part-2-1_Set-3_Inertia-1_ROTI_
1e-10, 1e-10, 1e-10, 0., 0., 0.
*System
*Nset, nset=Set-1, generate
   11,  6171,    11
*Elset, elset=Set-1, generate
   10,  5000,    10
*Nset, nset=Set-2
6177,6179,6180,6181,6182,6183,6184,6185,6186,6187,6188,6189,6190,6191,6192,6193
6194,6195,6196,6197,6198,6199
*Elset, elset=Set-2
5011,5012,5019,5031,5033,5034,5035,5042,5043,5044,5046,5052,5061,5066,5067,5069
5070,5072,5074,5090,5091,5092
*Nset, nset=Set-3
6177,6179,6180,6181,6182,6183,6184,6185,6186,6187,6188,6189,6190,6191,6192,6193
6194,6195,6196,6197,6198,6199
*Elset, elset=Set-3
5011,5012,5019,5031,5033,5034,5035,5042,5043,5044,5046,5052,5061,5066,5067,5069
5070,5072,5074,5090,5091,5092
*Nset, nset=Set-4
6285,
*Nset, nset=Set-5
6285,
*Nset, nset=Set-6
6285,
*Elset, elset=_Surf-1_SPOS, generate
5001, 5103,    1
*Surface, type=ELEMENT, name=Surf-1
_Surf-1_SPOS, SPOS
*Elset, elset=_Surf-2_S6, generate
    1,  4991,    10
*Surface, type=ELEMENT, name=Surf-2
_Surf-2_S6, S6
*Elset, elset=_Surf-5_SNEG, generate
5001, 5103,    1
*Surface, type=ELEMENT, name=Surf-5
_Surf-5_SNEG, SNEG
*Elset, elset=_m_Surf-3_SPOS, generate
5001, 5103,    1
*Surface, type=ELEMENT, name=m_Surf-3
_m_Surf-3_SPOS, SPOS
*Elset, elset=_s_Surf-3_S6, generate
    1,  4991,    10
*Surface, type=ELEMENT, name=s_Surf-3
_s_Surf-3_S6, S6
*Rigid Body, ref node=Part-2-1-RefPt_, elset=Part-2-1
*Amplitude, name=Amp-1
             0.,              0.,              1.,              1.
** 
** MATERIALS
** 
*Material, name=Volume
*Density
 7.85e-09,
*Elastic
200000., 0.3
*Material, name=user
*Density
 7.95e-09,
*Depvar, delete=3
     30,
*User Material, constants=6
200000.,   0., 200.,   0., 250., 0.02
** 
** INTERACTION PROPERTIES
** 
*Surface Interaction, name=IntProp-1
*Friction
 0.496,
*Surface Behavior, pressure-overclosure=HARD
** 
** BOUNDARY CONDITIONS
** 
** Name: BC-1 Type: Displacement/Rotation
*Boundary
Set-1, 1, 1
Set-1, 2, 2
Set-1, 3, 3
Set-1, 4, 4
Set-1, 5, 5
Set-1, 6, 6
** 
** INTERACTIONS
** 
** Interaction: Int-1
*Contact, op=NEW
*Contact Inclusions
Surf-1 , Surf-2
*Contact Property Assignment
 ,  , IntProp-1
** ----------------------------------------------------------------
** 
** STEP: aproximacao
** 
*Step, name=aproximacao, nlgeom=YES
*Dynamic, Explicit
, 1.
*Bulk Viscosity
0.06, 1.2
** Mass Scaling: Semi-Automatic
**               Whole Model
*Fixed Mass Scaling, dt=1e-05, type=below min
** 
** BOUNDARY CONDITIONS
** 
** Name: BC-2 Type: Displacement/Rotation
*Boundary, amplitude=Amp-1
Set-5, 1, 1
Set-5, 2, 2, -0.01
Set-5, 3, 3
Set-5, 4, 4
Set-5, 5, 5
Set-5, 6, 6
** 
** INTERACTIONS
** 
** Interaction: Int-1
*Contact, op=NEW
*Contact Inclusions
Surf-5 , Surf-2
*Contact Property Assignment
 ,  , IntProp-1
** 
** OUTPUT REQUESTS
** 
*Restart, write, number interval=1, time marks=NO
** 
** FIELD OUTPUT: F-Output-2
** 
*Output, field, time interval=1.
*Node Output
U, 
*Element Output, directions=YES
E, S, SDV, STATUS
** 
** HISTORY OUTPUT: H-Output-2
** 
*Output, history, time interval=0.1
*Energy Output
ALLAE, ALLCD, ALLCW, ALLDC, ALLDMD, ALLFD, ALLIE, ALLKE, ALLMW, ALLPD, ALLPW, ALLSE, ALLVD, ALLWK, ETOTAL
*End Step
** ----------------------------------------------------------------
** 
** STEP: force
** 
*Step, name=force, nlgeom=YES
*Dynamic, Explicit
, 1.
*Bulk Viscosity
0.06, 1.2
** Mass Scaling: Semi-Automatic
**               Whole Model
*Fixed Mass Scaling, dt=1e-05, type=below min
** 
** BOUNDARY CONDITIONS
** 
** Name: BC-1 Type: Displacement/Rotation
*Boundary, op=NEW
Set-1, 1, 1
Set-1, 2, 2
Set-1, 3, 3
Set-1, 4, 4
Set-1, 5, 5
Set-1, 6, 6
** Name: BC-2 Type: Displacement/Rotation
*Boundary, op=NEW
** Name: BC-3 Type: Displacement/Rotation
*Boundary, op=NEW, amplitude=Amp-1
Set-6, 1, 1
Set-6, 3, 3
Set-6, 4, 4
Set-6, 5, 5
Set-6, 6, 6
** 
** LOADS
** 
** Name: Load-1   Type: Concentrated force
*Cload, amplitude=Amp-1
Set-4, 2, -10.
** 
** OUTPUT REQUESTS
** 
*Restart, write, number interval=1, time marks=NO
** 
** FIELD OUTPUT: F-Output-2
** 
*Output, field, time interval=1.
*Node Output
U, 
*Element Output, directions=YES
E, S, SDV, STATUS
** 
** HISTORY OUTPUT: H-Output-2
** 
*Output, history, time interval=0.1
*Energy Output
ALLAE, ALLCD, ALLCW, ALLDC, ALLDMD, ALLFD, ALLIE, ALLKE, ALLMW, ALLPD, ALLPW, ALLSE, ALLVD, ALLWK, ETOTAL
*End Step
** ----------------------------------------------------------------
** 
** STEP: risco
** 
*Step, name=risco, nlgeom=YES
*Dynamic, Explicit
, 1.
*Bulk Viscosity
0.06, 1.2
** Mass Scaling: Semi-Automatic
**               Whole Model
*Fixed Mass Scaling, dt=1e-06, type=below min
** 
** BOUNDARY CONDITIONS
** 
** Name: BC-3 Type: Displacement/Rotation
*Boundary, amplitude=Amp-1
Set-6, 1, 1, 48.
** 
** OUTPUT REQUESTS
** 
*Restart, write, number interval=1, time marks=NO
** 
** FIELD OUTPUT: F-Output-3
** 
*Output, field, time interval=0.001
*Node Output
RF, U
*Element Output, directions=YES
E, S, SDV, STATUS
** 
** HISTORY OUTPUT: H-Output-2
** 
*Output, history, time interval=0.1
*Energy Output
ALLAE, ALLCD, ALLCW, ALLDC, ALLDMD, ALLFD, ALLIE, ALLKE, ALLMW, ALLPD, ALLPW, ALLSE, ALLVD, ALLWK, ETOTAL
*End Step
